41
total_Gibbs_free_energy -2164.660793
Pd -1.2455117279 -0.6655553540 -0.6189253712
P 1.0148798687 -0.5777012774 -0.2133325878
Cl -1.3793942242 -3.1139382939 -0.4576725175
C 2.7942109592 3.6951946791 -0.7067442806
C 3.0740855973 2.7148330355 -1.6584106701
C 2.5742892312 1.4190992793 -1.5064639563
C 1.7834415237 1.0869310077 -0.3973101828
C 1.4979658085 2.0846377855 0.5512599280
C 2.0044480122 3.3743238997 0.4002992680
H 3.1846001237 4.7022358472 -0.8267294736
H 3.6863131269 2.9537845381 -2.5243130106
H 2.8056293706 0.6667302618 -2.2539502088
H 0.8823596182 1.8501689424 1.4157384291
H 1.7782270490 4.1308272801 1.1473511875
C 3.4109401407 -3.2419491123 -3.1607573783
C 4.0216126011 -2.7795707781 -1.9926800365
C 3.3065198005 -1.9885055345 -1.0954060462
C 1.9698565295 -1.6510707068 -1.3601548443
C 1.3585978528 -2.1311040779 -2.5260246331
C 2.0803682243 -2.9182891246 -3.4245613106
H 3.9691107100 -3.8627901491 -3.8571169174
H 5.0547305725 -3.0397290640 -1.7768934352
H 3.7876820654 -1.6439993425 -0.1847837601
H 0.3103796141 -1.9159236473 -2.7084682657
H 1.5936603167 -3.2914259031 -4.3218196126
C 2.2975863710 -2.0174931198 4.0212563685
C 1.1687777665 -2.5519414762 3.3984029049
C 0.7723462364 -2.1017219021 2.1379094895
C 1.5128227440 -1.1052853195 1.4829630853
C 2.6491227030 -0.5700590806 2.1140333125
C 3.0368098996 -1.0254856165 3.3746569742
H 2.6003393879 -2.3704117815 5.0038574092
H 0.5882339794 -3.3268581111 3.8923133562
H -0.0964388524 -2.5357650410 1.6495869984
H 3.2313761395 0.2071744371 1.6289685981
H 3.9178510679 -0.6015069265 3.8501830988
C -1.4281243836 1.3724813248 -0.8812243351
C -2.7766507469 1.4640518142 -1.6211623861
H -3.3969525128 2.2466569707 -1.1608174581
C -3.5062747735 0.1185976129 -1.3621173959
C -2.6564459936 1.8142737472 -3.0964433428