41
total_Gibbs_free_energy -2164.666939
Pd -0.2788275445 0.2309283550 -0.6667088894
P 1.6344189310 -0.4229629492 0.4680517988
Cl -0.4716825103 2.3625930823 0.5266007007
C 3.6631572456 -4.3584126069 -0.9606586056
C 2.3775690490 -4.3736854235 -0.4119174482
C 1.7881904895 -3.1868138955 0.0189524545
C 2.4776877579 -1.9657582117 -0.0842329026
C 3.7647250178 -1.9604883405 -0.6379751699
C 4.3523484723 -3.1514890644 -1.0716499936
H 4.1225067235 -5.2835306249 -1.2992905588
H 1.8337029718 -5.3103803776 -0.3200856186
H 0.7904079251 -3.2092005200 0.4508840756
H 4.3121197508 -1.0282756925 -0.7307503275
H 5.3525816025 -3.1315309545 -1.4969735327
C 0.9169692583 -1.1757245387 5.0109566243
C 1.8755935556 -1.9238777411 4.3261783037
C 2.0888780090 -1.7139333974 2.9631566592
C 1.3416027582 -0.7494564206 2.2641444897
C 0.3819951508 0.0027670899 2.9599393381
C 0.1768255509 -0.2125632682 4.3237296788
H 0.7500927743 -1.3420761978 6.0721466273
H 2.4615966794 -2.6749224696 4.8502843642
H 2.8379408593 -2.3065631800 2.4479748609
H -0.1870737290 0.7655526061 2.4350281392
H -0.5681517183 0.3801530227 4.8483789225
C 4.9735616149 2.7859716777 0.2261211577
C 4.0058337630 2.6910375870 -0.7744431411
C 2.9934558673 1.7360137661 -0.6822657188
C 2.9506002900 0.8572052622 0.4089727711
C 3.9230329064 0.9604701183 1.4149830582
C 4.9286246419 1.9220888653 1.3219661259
H 5.7558751958 3.5378091360 0.1579223783
H 4.0273681719 3.3704044678 -1.6223646355
H 2.2248843019 1.6818120066 -1.4474058834
H 3.8915728839 0.2988254159 2.2756186939
H 5.6741414867 1.9993507787 2.1093827443
C -0.3106675680 -1.2846637419 -2.1140498466
C -1.8208921291 -1.2782166371 -2.4393912937
H -2.2524609241 -2.2495515090 -2.1697216992
C -2.5782662999 -0.1849157404 -1.6766460850
C 0.6014939719 -0.8453002799 -3.2058331669